6
 energy: -13.170810543524 gnorm: 0.000141622835 xtb: 6.2.3 (830e466)
F        -2.80152148724816   -0.17042137682805    0.04519509268105
Cl        2.67425390051581    0.15518013812988   -0.04216489919994
C        -1.20168760862041   -0.06868627116376    0.02183069412917
H        -0.91462598797259   -0.62193882690660   -0.85836806100435
H        -0.89409113569053   -0.52429674828487    0.94984891898289
H        -1.00524768098410    0.99009308505340   -0.03764174558880
