6
 energy: -13.149260330036 gnorm: 0.000093082398 xtb: 6.2.3 (830e466)
F        -2.70723785487937   -0.15977136180341    0.04681782734699
Cl        1.43070514138426    0.08598337101192   -0.02235127437785
C        -0.57449304730738   -0.03313505609174    0.01119213335007
H        -0.74459607130891   -0.61915259132966   -0.86926073417789
H        -0.71998453224614   -0.52049684045641    0.95397823515091
H        -0.82730363564248    1.00650247866931   -0.04165618729223
