10
Coordinates from ORCA-job m-mfaV_2-6_hl1d_fbond_scan_7_orca E -118.167894858076
  C      -1.233851      0.099740     -0.005467
  C       0.161037     -0.486406      0.069613
  C       1.309986      0.287749     -0.289703
  H      -1.250300      1.143728      0.368710
  H      -1.960542     -0.488549      0.589802
  H      -1.594541      0.119978     -1.056800
  H       0.744889     -0.290756      0.958451
  H       0.227866     -1.555535     -0.205771
  H       1.300364      1.372529     -0.086887
  H       2.294992     -0.202578     -0.341948
10
Coordinates from ORCA-job m-mfaV_2-6_hl1d_fbond_scan_7_orca E -118.169166379902
  C      -1.239166      0.097508     -0.006835
  C       0.151074     -0.496844      0.062675
  C       1.318706      0.293425     -0.290016
  H      -1.248290      1.142123      0.366833
  H      -1.966913     -0.486167      0.591001
  H      -1.602943      0.119928     -1.057438
  H       0.755953     -0.284463      0.959483
  H       0.217984     -1.568662     -0.203204
  H       1.308888      1.377110     -0.081069
  H       2.304606     -0.194057     -0.341431
10
Coordinates from ORCA-job m-mfaV_2-6_hl1d_fbond_scan_7_orca E -118.169459928966
  C      -1.240457      0.096290     -0.007499
  C       0.143626     -0.507143      0.059727
  C       1.322709      0.297290     -0.290946
  H      -1.242750      1.140255      0.367555
  H      -1.971984     -0.483741      0.589483
  H      -1.604776      0.123545     -1.058281
  H       0.760669     -0.279107      0.959562
  H       0.214380     -1.579320     -0.198246
  H       1.308793      1.379366     -0.077572
  H       2.309689     -0.187537     -0.343783
10
Coordinates from ORCA-job m-mfaV_2-6_hl1d_fbond_scan_7_orca E -118.169477667096
  C      -1.239563      0.096344     -0.007496
  C       0.142706     -0.510123      0.060567
  C       1.322045      0.297274     -0.291821
  H      -1.240135      1.139298      0.370094
  H      -1.973877     -0.483360      0.586596
  H      -1.602620      0.127519     -1.058701
  H       0.760554     -0.276869      0.959970
  H       0.216695     -1.582344     -0.195170
  H       1.304860      1.379177     -0.078216
  H       2.309235     -0.187016     -0.345823
