10
Coordinates from ORCA-job m-mfaV_2-6_hl1d_fbond_scan_12_orca E -118.205477131913
  C      -1.301346      0.069581     -0.039360
  C       0.031435     -0.597464     -0.038832
  C       1.296809      0.192904      0.001703
  H      -1.584592      0.447978      0.976765
  H      -2.117047     -0.614745     -0.351959
  H      -1.317097      0.960913     -0.705046
  H       1.479139      0.558401      0.900490
  H       0.077408     -1.671542      0.213820
  H       1.253796      1.070675     -0.681189
  H       2.181395     -0.416800     -0.276391
10
Coordinates from ORCA-job m-mfaV_2-6_hl1d_fbond_scan_12_orca E -118.205516567578
  C      -1.301650      0.069384     -0.039192
  C       0.031230     -0.597675     -0.038752
  C       1.298314      0.194511      0.004572
  H      -1.585044      0.448800      0.976561
  H      -2.117570     -0.615015     -0.351221
  H      -1.317495      0.960296     -0.705570
  H       1.480105      0.559721      0.903584
  H       0.076940     -1.672328      0.211560
  H       1.254330      1.068918     -0.683260
  H       2.180740     -0.416711     -0.278283
10
Coordinates from ORCA-job m-mfaV_2-6_hl1d_fbond_scan_12_orca E -118.205544529769
  C      -1.301316      0.069287     -0.038876
  C       0.031523     -0.597743     -0.039027
  C       1.299921      0.196941      0.009323
  H      -1.583978      0.451382      0.976057
  H      -2.117757     -0.615481     -0.348687
  H      -1.317886      0.958904     -0.707154
  H       1.479807      0.561625      0.908932
  H       0.077242     -1.673570      0.206183
  H       1.253925      1.065168     -0.686144
  H       2.178418     -0.416613     -0.280608
10
Coordinates from ORCA-job m-mfaV_2-6_hl1d_fbond_scan_12_orca E -118.205546264485
  C      -1.301066      0.069321     -0.038782
  C       0.031730     -0.597717     -0.039457
  C       1.299800      0.197044      0.009765
  H      -1.582684      0.452740      0.975945
  H      -2.117846     -0.615691     -0.347085
  H      -1.318233      0.958235     -0.708035
  H       1.478690      0.561706      0.909581
  H       0.077595     -1.673924      0.204073
  H       1.253713      1.064877     -0.686118
  H       2.178200     -0.416692     -0.279886
