10
Coordinates from ORCA-job m-mfaV_2-6_hl1d_fbond_scan_11_orca E -118.217168681470
  C      -1.303342      0.068514     -0.042405
  C       0.028309     -0.600696     -0.045900
  C       1.291093      0.181746     -0.023656
  H      -1.581960      0.444231      0.975867
  H      -2.120499     -0.614593     -0.353569
  H      -1.319684      0.961004     -0.706102
  H       1.501302      0.588048      0.962664
  H       0.073628     -1.672933      0.214318
  H       1.250324      1.069608     -0.692244
  H       2.180730     -0.425027     -0.288973
10
Coordinates from ORCA-job m-mfaV_2-6_hl1d_fbond_scan_11_orca E -118.217231076761
  C      -1.303944      0.068180     -0.042281
  C       0.027841     -0.601095     -0.046078
  C       1.293206      0.183836     -0.020079
  H      -1.582905      0.444847      0.975670
  H      -2.121414     -0.614841     -0.353077
  H      -1.320323      0.960354     -0.706574
  H       1.502909      0.589481      0.966620
  H       0.072863     -1.673760      0.212528
  H       1.251323      1.067822     -0.694951
  H       2.180345     -0.424924     -0.291777
10
Coordinates from ORCA-job m-mfaV_2-6_hl1d_fbond_scan_11_orca E -118.217269311508
  C      -1.303689      0.067995     -0.042126
  C       0.027985     -0.601337     -0.046735
  C       1.295301      0.186795     -0.014557
  H      -1.582226      0.447081      0.975030
  H      -2.121752     -0.615152     -0.351107
  H      -1.320656      0.959060     -0.708087
  H       1.503176      0.591038      0.973104
  H       0.073149     -1.674815      0.208531
  H       1.250862      1.063922     -0.698308
  H       2.177749     -0.424687     -0.295745
10
Coordinates from ORCA-job m-mfaV_2-6_hl1d_fbond_scan_11_orca E -118.217270963210
  C      -1.303341      0.068051     -0.042118
  C       0.028261     -0.601300     -0.047138
  C       1.295159      0.186932     -0.014068
  H      -1.580908      0.448489      0.974793
  H      -2.121739     -0.615334     -0.349627
  H      -1.320848      0.958389     -0.709085
  H       1.502101      0.590736      0.973968
  H       0.073635     -1.675066      0.206939
  H       1.250282      1.063730     -0.698085
  H       2.177299     -0.424726     -0.295579
