6
Coordinates from ORCA-job TS_3ixBtq_ll_neb_0-2_1-2_optts_orca E -599.486549519889
  F      -2.611053     -0.051399      0.036671
  Cl      1.599951      0.040032     -0.016190
  C      -0.544596     -0.007989      0.005292
  H      -0.664229     -0.642852     -0.849729
  H      -0.644835     -0.436217      0.981859
  H      -0.690909      1.046324     -0.113633
6
Coordinates from ORCA-job TS_3ixBtq_ll_neb_0-2_1-2_optts_orca E -599.487005155129
  F      -2.594595     -0.025094      0.042453
  Cl      1.582576      0.053906     -0.012986
  C      -0.540961     -0.015489      0.003398
  H      -0.655433     -0.656599     -0.855219
  H      -0.643780     -0.450215      0.983547
  H      -0.703477      1.041391     -0.116923
6
Coordinates from ORCA-job TS_3ixBtq_ll_neb_0-2_1-2_optts_orca E -599.487142210391
  F      -2.575678     -0.014499      0.051277
  Cl      1.563943      0.058070     -0.008365
  C      -0.536627     -0.018031      0.000687
  H      -0.649230     -0.663393     -0.862688
  H      -0.647290     -0.456834      0.984904
  H      -0.710788      1.042587     -0.121546
6
Coordinates from ORCA-job TS_3ixBtq_ll_neb_0-2_1-2_optts_orca E -599.487134906495
  F      -2.578272     -0.011465      0.048476
  Cl      1.565815      0.060062     -0.009758
  C      -0.537010     -0.018902      0.001396
  H      -0.649497     -0.665163     -0.861655
  H      -0.645126     -0.458416      0.985981
  H      -0.711582      1.041784     -0.120170
6
Coordinates from ORCA-job TS_3ixBtq_ll_neb_0-2_1-2_optts_orca E -599.487137289181
  F      -2.578205     -0.012380      0.049441
  Cl      1.565850      0.059557     -0.009259
  C      -0.537154     -0.018620      0.001110
  H      -0.649341     -0.664812     -0.862099
  H      -0.645706     -0.458041      0.985698
  H      -0.711114      1.042195     -0.120621
