10
Coordinates from ORCA-job TS_m-mfaV_2-6_hl1d_fbond_optts_orca E -118.185044201021
  C      -1.243802      0.092550     -0.009665
  C       0.126623     -0.528604      0.062816
  C       1.325941      0.286828     -0.246278
  H      -1.239185      1.120050      0.408804
  H      -2.000184     -0.497601      0.545699
  H      -1.590400      0.176137     -1.065584
  H       0.810574     -0.224868      0.935672
  H       0.222652     -1.604599     -0.160967
  H       1.282424      1.378082     -0.106487
  H       2.305257     -0.198076     -0.364011
10
Coordinates from ORCA-job TS_m-mfaV_2-6_hl1d_fbond_optts_orca E -118.183246418132
  C      -1.244323      0.091898     -0.010531
  C       0.122612     -0.532121      0.062790
  C       1.327193      0.285545     -0.232182
  H      -1.238856      1.116159      0.413535
  H      -2.003341     -0.498836      0.538609
  H      -1.587831      0.182544     -1.066208
  H       0.821154     -0.217052      0.935601
  H       0.221763     -1.607177     -0.157853
  H       1.278791      1.377795     -0.113649
  H       2.302737     -0.198855     -0.370111
10
Coordinates from ORCA-job TS_m-mfaV_2-6_hl1d_fbond_optts_orca E -118.181952587909
  C      -1.244495      0.091389     -0.011327
  C       0.119901     -0.534168      0.064424
  C       1.328876      0.284463     -0.216614
  H      -1.239568      1.112603      0.418173
  H      -2.006069     -0.500645      0.531195
  H      -1.583902      0.188627     -1.067161
  H       0.829415     -0.212656      0.938729
  H       0.220281     -1.608319     -0.155134
  H       1.275590      1.377762     -0.123310
  H       2.299871     -0.199156     -0.378976
10
Coordinates from ORCA-job TS_m-mfaV_2-6_hl1d_fbond_optts_orca E -118.180976811917
  C      -1.244511      0.091065     -0.012106
  C       0.117679     -0.535690      0.066360
  C       1.330679      0.283212     -0.201235
  H      -1.240980      1.108882      0.423654
  H      -2.008617     -0.503162      0.522825
  H      -1.579169      0.195441     -1.068220
  H       0.837008     -0.208282      0.944422
  H       0.219075     -1.609026     -0.152362
  H       1.272324      1.377229     -0.134318
  H       2.296411     -0.199768     -0.389021
10
Coordinates from ORCA-job TS_m-mfaV_2-6_hl1d_fbond_optts_orca E -118.180246066010
  C      -1.244419      0.090897     -0.012943
  C       0.115877     -0.536703      0.067998
  C       1.332662      0.282077     -0.185936
  H      -1.242737      1.105236      0.429238
  H      -2.010805     -0.505924      0.514265
  H      -1.574333      0.202384     -1.069283
  H       0.844167     -0.204449      0.951785
  H       0.218133     -1.609377     -0.149643
  H       1.268974      1.376315     -0.145937
  H       2.292382     -0.200556     -0.399543
10
Coordinates from ORCA-job TS_m-mfaV_2-6_hl1d_fbond_optts_orca E -118.179694613699
  C      -1.244275      0.090817     -0.013870
  C       0.114404     -0.537180      0.069366
  C       1.334852      0.280943     -0.170993
  H      -1.245082      1.101394      0.435286
  H      -2.012658     -0.509283      0.505136
  H      -1.569365      0.209785     -1.070350
  H       0.851313     -0.200306      0.960427
  H       0.217185     -1.609390     -0.146616
  H       1.265764      1.374858     -0.157937
  H       2.287762     -0.201738     -0.410448
10
Coordinates from ORCA-job TS_m-mfaV_2-6_hl1d_fbond_optts_orca E -118.179280593772
  C      -1.244110      0.090805     -0.014846
  C       0.113167     -0.537175      0.070411
  C       1.337155      0.279830     -0.156579
  H      -1.248069      1.097206      0.442041
  H      -2.014282     -0.513335      0.495199
  H      -1.564171      0.217900     -1.071367
  H       0.859008     -0.195672      0.970087
  H       0.216058     -1.609136     -0.143143
  H       1.262583      1.372832     -0.170529
  H       2.282562     -0.203354     -0.421275
10
Coordinates from ORCA-job TS_m-mfaV_2-6_hl1d_fbond_optts_orca E -118.178985234113
  C      -1.243982      0.090829     -0.015878
  C       0.112083     -0.536689      0.071061
  C       1.339505      0.278644     -0.143163
  H      -1.251982      1.092261      0.450191
  H      -2.015724     -0.518533      0.483855
  H      -1.558639      0.227449     -1.072266
  H       0.867500     -0.189833      0.980650
  H       0.214655     -1.608707     -0.138702
  H       1.259620      1.370136     -0.184028
  H       2.276864     -0.205658     -0.431720
10
Coordinates from ORCA-job TS_m-mfaV_2-6_hl1d_fbond_optts_orca E -118.178809716354
  C      -1.243956      0.090857     -0.016892
  C       0.111061     -0.535767      0.071475
  C       1.341643      0.277297     -0.131894
  H      -1.257273      1.085848      0.461108
  H      -2.017240     -0.525584      0.469861
  H      -1.552187      0.239826     -1.072913
  H       0.877142     -0.182003      0.991892
  H       0.212863     -1.608304     -0.132199
  H       1.256934      1.366712     -0.199236
  H       2.270912     -0.208981     -0.441202
10
Coordinates from ORCA-job TS_m-mfaV_2-6_hl1d_fbond_optts_orca E -118.178764711653
  C      -1.244115      0.090841     -0.017665
  C       0.110065     -0.534556      0.072169
  C       1.343047      0.275644     -0.125557
  H      -1.264614      1.076979      0.476672
  H      -2.019144     -0.535407      0.451680
  H      -1.544000      0.256886     -1.072962
  H       0.887409     -0.171120      1.002829
  H       0.210686     -1.608277     -0.121951
  H       1.254993      1.362714     -0.216658
  H       2.265573     -0.213804     -0.448557
10
Coordinates from ORCA-job TS_m-mfaV_2-6_hl1d_fbond_optts_orca E -118.178805051435
  C      -1.244477      0.090783     -0.017898
  C       0.109073     -0.533499      0.073398
  C       1.343150      0.273952     -0.125898
  H      -1.273374      1.066334      0.495453
  H      -2.021403     -0.546765      0.430996
  H      -1.534619      0.277343     -1.071984
  H       0.897200     -0.158917      1.011835
  H       0.208345     -1.608829     -0.108906
  H       1.253863      1.358877     -0.235145
  H       2.262143     -0.219378     -0.451851
10
Coordinates from ORCA-job TS_m-mfaV_2-6_hl1d_fbond_optts_orca E -118.178840667746
  C      -1.245002      0.090659     -0.017953
  C       0.108135     -0.532770      0.074189
  C       1.342436      0.272696     -0.130025
  H      -1.281662      1.056242      0.512557
  H      -2.023048     -0.557070      0.412619
  H      -1.526837      0.296418     -1.070239
  H       0.905239     -0.148194      1.019672
  H       0.206241     -1.609503     -0.097160
  H       1.254038      1.355850     -0.251926
  H       2.260360     -0.224427     -0.451735
10
Coordinates from ORCA-job TS_m-mfaV_2-6_hl1d_fbond_optts_orca E -118.178842457312
  C      -1.245143      0.090593     -0.017990
  C       0.108100     -0.532769      0.073768
  C       1.342348      0.272890     -0.130917
  H      -1.281419      1.056775      0.511497
  H      -2.022748     -0.556689      0.414093
  H      -1.527946      0.295227     -1.070210
  H       0.904654     -0.148723      1.019874
  H       0.206228     -1.609376     -0.098341
  H       1.255004      1.356296     -0.250992
  H       2.260823     -0.224323     -0.450783
10
Coordinates from ORCA-job TS_m-mfaV_2-6_hl1d_fbond_optts_orca E -118.178843772626
  C      -1.245212      0.090575     -0.018027
  C       0.108046     -0.532784      0.073278
  C       1.342361      0.273101     -0.130656
  H      -1.280760      1.057615      0.509931
  H      -2.022487     -0.555870      0.415919
  H      -1.529102      0.293482     -1.070285
  H       0.904541     -0.149648      1.019778
  H       0.206156     -1.609217     -0.099946
  H       1.255258      1.356593     -0.249996
  H       2.261098     -0.223947     -0.449996
