2
Coordinates from ORCA-job dissoc_hh--h_a+h_b_0-1_hl1d_scan_0_orca E  -1.157425863682
  H       0.000000      0.000000      0.000000
  H       0.700000      0.000000      0.000000
2
Coordinates from ORCA-job dissoc_hh--h_a+h_b_0-1_hl1d_scan_0_orca E  -1.157425863604
  H       0.000000      0.000000      0.000000
  H       0.700000      0.000000      0.000000
