2
Coordinates from ORCA-job dissoc_hh--h_a+h_b_0-1_hl1d_scan_1_orca E  -1.158271702417
  H      -0.068182      0.000000      0.000000
  H       0.768182      0.000000      0.000000
2
Coordinates from ORCA-job dissoc_hh--h_a+h_b_0-1_hl1d_scan_1_orca E  -1.158271702367
  H      -0.068182      0.000000      0.000000
  H       0.768182      0.000000      0.000000
