22
	Energy:      79.5653258
C         -0.05324       -0.19456        0.30375
C         -0.75367       -1.30338        1.12435
C          1.47782       -0.44938        0.24584
H         -0.25608        0.78991        0.77956
H         -0.46338       -0.15431       -0.72907
C          1.85131       -1.68529        1.09818
C         -0.41467       -2.67253        0.48877
C          1.11852       -2.91909        0.52008
H         -0.77935       -2.68393       -0.56174
H         -0.93494       -3.49349        1.02909
H          1.48074       -3.14261       -0.50725
H          1.34743       -3.80487        1.15229
C         -0.18943       -1.27855        2.56465
H         -1.85366       -1.14221        1.13548
C          1.35392       -1.45192        2.54442
H         -0.65581       -2.10157        3.14935
H         -0.45037       -0.32341        3.07076
H          2.01937        0.45240        0.60649
H          1.79326       -0.62686       -0.80569
H          2.95131       -1.84644        1.08706
H          1.64172       -2.30322        3.19940
H          1.84325       -0.54014        2.95179
