15
	Energy:     121.8338938
C          0.57230       -2.83109        0.06672
C          0.19873       -1.52941       -0.65065
C          0.80277       -1.99760        1.33199
C          0.95858       -0.76603        0.43662
H          1.62724       -2.26603        2.02657
H         -0.17133       -1.90704        1.86771
H          2.02528       -0.66999        0.13403
H          0.54706        0.20297        0.79072
H         -0.89080       -1.34948       -0.49349
H          0.48714       -1.38300       -1.71351
C          1.87372       -3.44824       -0.47488
H         -0.21866       -3.61022        0.12305
H          2.70400       -2.71643       -0.55242
H          1.68642       -3.87201       -1.48400
H          2.19595       -4.27171        0.19673
