10
Coordinates from ORCA-job m-mfaV_2-6_hl1d_fbond_scan_2_orca E -118.206711262832
  C      -1.179784      0.120886      0.020750
  C       0.222005     -0.468406      0.201022
  C       1.322837      0.316489     -0.303102
  H      -1.247621      1.132556      0.471858
  H      -1.952348     -0.513315      0.499838
  H      -1.435520      0.218578     -1.054592
  H       0.466802     -0.581646      1.249217
  H       0.255392     -1.503129     -0.210691
  H       1.226046      1.406686     -0.440418
  H       2.322092     -0.128798     -0.433882
10
Coordinates from ORCA-job m-mfaV_2-6_hl1d_fbond_scan_2_orca E -118.207493264110
  C      -1.185156      0.119277      0.019755
  C       0.213762     -0.477458      0.189872
  C       1.329217      0.320580     -0.305404
  H      -1.244276      1.132600      0.468828
  H      -1.957398     -0.509637      0.505598
  H      -1.447324      0.215645     -1.053921
  H       0.476512     -0.575710      1.249811
  H       0.247843     -1.516585     -0.213535
  H       1.235239      1.412198     -0.436540
  H       2.331481     -0.121010     -0.424465
10
Coordinates from ORCA-job m-mfaV_2-6_hl1d_fbond_scan_2_orca E -118.207669173537
  C      -1.187045      0.118128      0.019302
  C       0.207064     -0.486013      0.182417
  C       1.331893      0.323579     -0.308923
  H      -1.238103      1.132130      0.467022
  H      -1.960347     -0.506160      0.509292
  H      -1.453394      0.214218     -1.053577
  H       0.481618     -0.571273      1.248449
  H       0.243146     -1.525957     -0.213791
  H       1.238196      1.415738     -0.433068
  H       2.336874     -0.114492     -0.417123
10
Coordinates from ORCA-job m-mfaV_2-6_hl1d_fbond_scan_2_orca E -118.207676493257
  C      -1.186615      0.118175      0.019303
  C       0.206533     -0.487378      0.182264
  C       1.331159      0.323528     -0.310550
  H      -1.236452      1.132041      0.467265
  H      -1.960844     -0.505429      0.508885
  H      -1.453115      0.214811     -1.053551
  H       0.481967     -0.570383      1.247953
  H       0.243988     -1.527210     -0.213200
  H       1.236630      1.415851     -0.432129
  H       2.336651     -0.114106     -0.416241
