10
Coordinates from ORCA-job m-mfaV_2-6_hl1d_fbond_scan_3_orca E -118.202025966054
  C      -1.190940      0.117840      0.017895
  C       0.210442     -0.471192      0.171855
  C       1.320076      0.309112     -0.291888
  H      -1.247810      1.134151      0.459542
  H      -1.953676     -0.511064      0.518903
  H      -1.468561      0.204348     -1.053108
  H       0.524847     -0.535517      1.196702
  H       0.244670     -1.511728     -0.222063
  H       1.239309      1.403347     -0.406987
  H       2.321542     -0.139396     -0.390850
10
Coordinates from ORCA-job m-mfaV_2-6_hl1d_fbond_scan_3_orca E -118.202920059800
  C      -1.196148      0.116110      0.016743
  C       0.201779     -0.480753      0.160873
  C       1.326580      0.313416     -0.294972
  H      -1.244177      1.133968      0.456357
  H      -1.958756     -0.507288      0.524111
  H      -1.480027      0.201665     -1.052499
  H       0.534885     -0.528869      1.196825
  H       0.237005     -1.525730     -0.223800
  H       1.248328      1.409148     -0.401169
  H       2.330431     -0.131767     -0.382470
10
Coordinates from ORCA-job m-mfaV_2-6_hl1d_fbond_scan_3_orca E -118.203123782539
  C      -1.197687      0.114909      0.016094
  C       0.195073     -0.489888      0.153683
  C       1.329099      0.316398     -0.299706
  H      -1.237415      1.133399      0.454247
  H      -1.961748     -0.503497      0.527348
  H      -1.485684      0.200485     -1.052282
  H       0.539635     -0.523211      1.194781
  H       0.232942     -1.535882     -0.222727
  H       1.250560      1.412804     -0.394625
  H       2.335125     -0.125618     -0.376811
10
Coordinates from ORCA-job m-mfaV_2-6_hl1d_fbond_scan_3_orca E -118.203138334808
  C      -1.197171      0.114875      0.015908
  C       0.194494     -0.491705      0.153327
  C       1.328210      0.316256     -0.302272
  H      -1.235258      1.133291      0.454136
  H      -1.962365     -0.502481      0.526943
  H      -1.485534      0.200975     -1.052404
  H       0.539972     -0.521168      1.194086
  H       0.234119     -1.537792     -0.221476
  H       1.248778      1.413028     -0.391383
  H       2.334655     -0.125381     -0.376864
