10
Coordinates from ORCA-job m-mfaV_2-6_hl1d_fbond_scan_10_orca E -118.215771819287
  C      -1.304555      0.067644     -0.044786
  C       0.026125     -0.603431     -0.050420
  C       1.284740      0.168064     -0.049489
  H      -1.579366      0.443132      0.974072
  H      -2.123463     -0.614538     -0.353238
  H      -1.320161      0.959041     -0.709564
  H       1.523816      0.618777      1.022540
  H       0.068650     -1.675378      0.211255
  H       1.243291      1.069075     -0.698444
  H       2.180824     -0.432486     -0.301926
10
Coordinates from ORCA-job m-mfaV_2-6_hl1d_fbond_scan_10_orca E -118.215868829393
  C      -1.305692      0.067146     -0.044896
  C       0.025077     -0.604187     -0.051593
  C       1.287227      0.171182     -0.045514
  H      -1.580523      0.442899      0.974322
  H      -2.124753     -0.614877     -0.353303
  H      -1.321930      0.959038     -0.709261
  H       1.526051      0.620176      1.027293
  H       0.067950     -1.676092      0.210294
  H       1.246055      1.067231     -0.703085
  H       2.180438     -0.432616     -0.304256
10
Coordinates from ORCA-job m-mfaV_2-6_hl1d_fbond_scan_10_orca E -118.215920651265
  C      -1.305830      0.066873     -0.045126
  C       0.024691     -0.604676     -0.053693
  C       1.289377      0.175440     -0.039746
  H      -1.579717      0.443596      0.974085
  H      -2.125325     -0.615141     -0.352446
  H      -1.323407      0.958917     -0.709372
  H       1.526500      0.621284      1.034750
  H       0.068963     -1.676506      0.208255
  H       1.247415      1.062938     -0.708927
  H       2.177233     -0.432824     -0.307779
10
Coordinates from ORCA-job m-mfaV_2-6_hl1d_fbond_scan_10_orca E -118.215922226468
  C      -1.305435      0.066945     -0.045203
  C       0.025015     -0.604568     -0.054179
  C       1.289215      0.175719     -0.039254
  H      -1.578440      0.444649      0.973836
  H      -2.125259     -0.615207     -0.351359
  H      -1.323482      0.958476     -0.710139
  H       1.525317      0.620703      1.035823
  H       0.069763     -1.676493      0.207417
  H       1.246711      1.062657     -0.708955
  H       2.176495     -0.432981     -0.307987
