10
Coordinates from ORCA-job m-mfaV_2-6_hl1d_fbond_scan_5_orca E -118.187407749591
  C      -1.215536      0.106057      0.000551
  C       0.186917     -0.473827      0.117946
  C       1.311383      0.295593     -0.300624
  H      -1.254557      1.141346      0.397334
  H      -1.956417     -0.500018      0.558952
  H      -1.536796      0.144504     -1.061586
  H       0.636945     -0.392855      1.084281
  H       0.235556     -1.534344     -0.203364
  H       1.292894      1.393776     -0.187905
  H       2.299511     -0.180332     -0.405584
10
Coordinates from ORCA-job m-mfaV_2-6_hl1d_fbond_scan_5_orca E -118.188507418445
  C      -1.220671      0.104325     -0.000620
  C       0.177461     -0.484303      0.108278
  C       1.319283      0.301001     -0.302265
  H      -1.251180      1.141363      0.392895
  H      -1.961360     -0.495643      0.563980
  H      -1.547551      0.141413     -1.061085
  H       0.646615     -0.387034      1.083706
  H       0.227115     -1.547878     -0.204051
  H       1.300936      1.398412     -0.180203
  H       2.309252     -0.171754     -0.400632
10
Coordinates from ORCA-job m-mfaV_2-6_hl1d_fbond_scan_5_orca E -118.188742214178
  C      -1.221836      0.103441     -0.001151
  C       0.170613     -0.493991      0.102340
  C       1.322346      0.304955     -0.305765
  H      -1.244140      1.141529      0.389255
  H      -1.963995     -0.490690      0.567781
  H      -1.552786      0.139767     -1.060730
  H       0.650332     -0.382556      1.080783
  H       0.223958     -1.557810     -0.203023
  H       1.301248      1.400335     -0.172020
  H       2.314161     -0.165079     -0.397470
10
Coordinates from ORCA-job m-mfaV_2-6_hl1d_fbond_scan_5_orca E -118.188757269336
  C      -1.221141      0.103513     -0.001283
  C       0.169902     -0.496370      0.101821
  C       1.321403      0.305289     -0.308188
  H      -1.241074      1.141797      0.388422
  H      -1.964542     -0.488798      0.568138
  H      -1.553040      0.139989     -1.060646
  H       0.650451     -0.380804      1.079575
  H       0.225846     -1.560091     -0.202264
  H       1.298399      1.399831     -0.168334
  H       2.313696     -0.164456     -0.397240
