10
Coordinates from ORCA-job m-mfaV_2-6_hl1d_fbond_scan_0_orca E -118.200590998908
  C      -1.184900      0.098300     -0.014200
  C       0.218500     -0.446400      0.241300
  C       1.260100      0.430900     -0.379700
  H      -1.197800      1.209900      0.095100
  H      -1.853500     -0.404800      0.711200
  H      -1.453100     -0.127000     -1.070200
  H       0.364600     -0.595700      1.331500
  H       0.257600     -1.434200     -0.297000
  H       1.446000      1.366700      0.133800
  H       2.142400     -0.097800     -0.751800
10
Coordinates from ORCA-job m-mfaV_2-6_hl1d_fbond_scan_0_orca E -118.206424513440
  C      -1.199212      0.098101     -0.013069
  C       0.225065     -0.463226      0.237301
  C       1.303202      0.405523     -0.355887
  H      -1.224647      1.197528      0.141556
  H      -1.908272     -0.404203      0.672984
  H      -1.482328     -0.083471     -1.068510
  H       0.364082     -0.611534      1.337536
  H       0.276596     -1.457547     -0.257035
  H       1.448297      1.411955      0.076775
  H       2.197118     -0.093228     -0.771651
10
Coordinates from ORCA-job m-mfaV_2-6_hl1d_fbond_scan_0_orca E -118.208591976673
  C      -1.193155      0.099307     -0.010935
  C       0.229355     -0.473640      0.235090
  C       1.325265      0.384791     -0.338654
  H      -1.229213      1.186230      0.207259
  H      -1.939218     -0.412880      0.626903
  H      -1.481380     -0.030024     -1.072976
  H       0.354814     -0.618882      1.345062
  H       0.289718     -1.483059     -0.217751
  H       1.419481      1.434953     -0.001266
  H       2.224232     -0.086897     -0.772733
10
Coordinates from ORCA-job m-mfaV_2-6_hl1d_fbond_scan_0_orca E -118.209540441716
  C      -1.179329      0.101587     -0.008225
  C       0.231625     -0.477786      0.238301
  C       1.334193      0.368469     -0.327184
  H      -1.227808      1.172222      0.280216
  H      -1.953308     -0.434015      0.576809
  H      -1.458311      0.032700     -1.079501
  H       0.342434     -0.618512      1.353982
  H       0.296050     -1.503124     -0.181180
  H       1.377893      1.446344     -0.087309
  H       2.236461     -0.087985     -0.765908
10
Coordinates from ORCA-job m-mfaV_2-6_hl1d_fbond_scan_0_orca E -118.209899967786
  C      -1.168731      0.104528     -0.005136
  C       0.232438     -0.477256      0.245465
  C       1.336765      0.357202     -0.322522
  H      -1.231390      1.156843      0.343645
  H      -1.956549     -0.462220      0.531483
  H      -1.428051      0.093371     -1.084028
  H       0.335426     -0.612509      1.363009
  H       0.296299     -1.512425     -0.153691
  H       1.341467      1.449158     -0.163742
  H       2.242226     -0.096792     -0.754483
10
Coordinates from ORCA-job m-mfaV_2-6_hl1d_fbond_scan_0_orca E -118.210050312052
  C      -1.164563      0.107540     -0.001860
  C       0.232582     -0.475418      0.252689
  C       1.337591      0.350250     -0.322608
  H      -1.239474      1.144455      0.388574
  H      -1.955795     -0.487432      0.498346
  H      -1.403266      0.140532     -1.085057
  H       0.335197     -0.606005      1.369970
  H       0.293426     -1.514851     -0.138499
  H       1.316576      1.448349     -0.221733
  H       2.247627     -0.107522     -0.739821
10
Coordinates from ORCA-job m-mfaV_2-6_hl1d_fbond_scan_0_orca E -118.210129528887
  C      -1.164534      0.110489      0.001892
  C       0.232365     -0.473967      0.258303
  C       1.337984      0.345667     -0.325320
  H      -1.248601      1.135383      0.420768
  H      -1.954493     -0.507462      0.475166
  H      -1.384946      0.176191     -1.083442
  H       0.339331     -0.601649      1.374480
  H       0.289015     -1.514111     -0.132672
  H       1.298377      1.446563     -0.268974
  H       2.255402     -0.117203     -0.720201
10
Coordinates from ORCA-job m-mfaV_2-6_hl1d_fbond_scan_0_orca E -118.210161381421
  C      -1.166291      0.112382      0.005022
  C       0.231951     -0.473904      0.259751
  C       1.337998      0.343809     -0.328544
  H      -1.253199      1.132115      0.435130
  H      -1.954465     -0.515759      0.467124
  H      -1.378091      0.191811     -1.080918
  H       0.344321     -0.602067      1.374969
  H       0.285309     -1.512552     -0.135375
  H       1.288481      1.445594     -0.296556
  H       2.263887     -0.121529     -0.700604
10
Coordinates from ORCA-job m-mfaV_2-6_hl1d_fbond_scan_0_orca E -118.210185752715
  C      -1.167926      0.114107      0.008443
  C       0.231361     -0.474723      0.258589
  C       1.337699      0.342724     -0.332072
  H      -1.254604      1.130935      0.444835
  H      -1.955363     -0.518661      0.464919
  H      -1.376143      0.200952     -1.077532
  H       0.349518     -0.606294      1.372890
  H       0.281715     -1.511218     -0.142218
  H       1.278770      1.444729     -0.322547
  H       2.274872     -0.122650     -0.675307
10
Coordinates from ORCA-job m-mfaV_2-6_hl1d_fbond_scan_0_orca E -118.210220277716
  C      -1.169234      0.116911      0.014180
  C       0.230298     -0.476720      0.254353
  C       1.336956      0.341142     -0.337490
  H      -1.253175      1.129997      0.459087
  H      -1.957239     -0.518943      0.464832
  H      -1.376701      0.212825     -1.071173
  H       0.357105     -0.617302      1.367008
  H       0.276269     -1.509945     -0.155572
  H       1.261252      1.441932     -0.367952
  H       2.294369     -0.119997     -0.627273
10
Coordinates from ORCA-job m-mfaV_2-6_hl1d_fbond_scan_0_orca E -118.210254000083
  C      -1.168859      0.120305      0.020882
  C       0.229044     -0.479364      0.247700
  C       1.336137      0.339115     -0.342787
  H      -1.248032      1.128982      0.476248
  H      -1.959209     -0.516155      0.466395
  H      -1.380036      0.226596     -1.062921
  H       0.364489     -0.634330      1.357900
  H       0.270413     -1.509487     -0.172001
  H       1.238886      1.435254     -0.427394
  H       2.317068     -0.111016     -0.564024
10
Coordinates from ORCA-job m-mfaV_2-6_hl1d_fbond_scan_0_orca E -118.210272945083
  C      -1.166870      0.122609      0.024919
  C       0.228346     -0.480861      0.242648
  C       1.335984      0.337931     -0.344164
  H      -1.242366      1.127953      0.488437
  H      -1.959785     -0.512712      0.467854
  H      -1.384107      0.236831     -1.057061
  H       0.367335     -0.648765      1.350588
  H       0.267375     -1.509870     -0.182406
  H       1.222696      1.427899     -0.471831
  H       2.331292     -0.101115     -0.518983
10
Coordinates from ORCA-job m-mfaV_2-6_hl1d_fbond_scan_0_orca E -118.210277943371
  C      -1.165042      0.123472      0.025769
  C       0.228313     -0.480929      0.240927
  C       1.336535      0.337965     -0.342037
  H      -1.239182      1.127481      0.492829
  H      -1.958967     -0.510889      0.468703
  H      -1.386873      0.241456     -1.054966
  H       0.366412     -0.656131      1.347539
  H       0.267099     -1.510151     -0.185523
  H       1.215439      1.424036     -0.490395
  H       2.336166     -0.096409     -0.502844
10
Coordinates from ORCA-job m-mfaV_2-6_hl1d_fbond_scan_0_orca E -118.210277468968
  C      -1.164424      0.123705      0.025596
  C       0.228444     -0.480731      0.240919
  C       1.337220      0.338333     -0.339707
  H      -1.238165      1.127740      0.492899
  H      -1.957973     -0.510432      0.469616
  H      -1.387968      0.242494     -1.054682
  H       0.365256     -0.658876      1.346974
  H       0.267317     -1.509866     -0.186386
  H       1.213124      1.422965     -0.494906
  H       2.337070     -0.095431     -0.500321
