%mem=4000MB
# PBE1PBE/Def2SVP Charge Opt=(tight, z-matrix) NoSymm 

 methane_point_charge_o

0 1
C   -0.02210000   0.00320000   0.01650000 
H   -0.66900000   0.88940000  -0.10090000 
H   -0.37780000  -0.85780000  -0.58830000 
H    0.09640000  -0.31510000   1.06380000 
H    0.97250000   0.28030000  -0.39110000 

 3.00000000   3.00000000   3.00000000   1.00000000 

