! Opt PBE0 RIJCOSX D3BJ def2-SVP def2/J CPCM(Water)
%cpcm
 surfacetype vdw_gaussian
end
%geom MaxIter 100 end
%output 
xyzfile=True 
end 
%scf 
maxiter 250 
end
% maxcore 4000
*xyz 0 1
C   -0.13450000   0.00860000   0.00920000 
Cl   1.64090000  -0.02530000   0.02570000 
H   -0.48780000  -0.55120000  -0.88370000 
H   -0.55530000  -0.49910000   0.89680000 
H   -0.46330000   1.06690000  -0.04810000 
*
